Circuit: * parameters

Per .tran options, skipping operating point for transient analysis.

Date: Wed Nov 13 18:15:57 2024
Total elapsed time: 1138.396 seconds.

tnom = 27
temp = 27
method = Gear
totiter = 317578
traniter = 317578
tranpoints = 79034
accept = 58718
rejected = 20316
matrix size = 388
fillins = 444
solver = Normal
Thread vector: 5245.2/1783.3[4] 43.3/25.8[4] 421.1/130.8[4] 10.4/10.2[2]  2592/500
Matrix Compiler1: 321.71 KB object code size  165.4/80.0/[75.4]
Matrix Compiler2: 70.29 KB object code size  19.1/19.6/[17.7]

