Circuit: * parameters

Per .tran options, skipping operating point for transient analysis.

Date: Mon Dec 16 17:31:39 2024
Total elapsed time: 1078.655 seconds.

tnom = 27
temp = 27
method = modified trap
totiter = 202615
traniter = 202615
tranpoints = 47015
accept = 34524
rejected = 12491
matrix size = 388
fillins = 444
solver = Normal
Avg thread counts: 8.0/4.0/6.9/1.0
Matrix Compiler1: 321.72 KB object code size  144.8/129.4/[111.8]
Matrix Compiler2: off  [21.3]/35.7/24.9

